Version 4
SHEET 1 1000 680
WIRE -144 -256 -336 -256
WIRE -336 -208 -336 -256
WIRE -336 -64 -336 -128
WIRE -144 -64 -144 -256
WIRE -128 16 -144 16
WIRE -64 16 -80 16
WIRE -48 16 -64 16
WIRE 0 16 -48 16
WIRE 16 16 0 16
WIRE 128 16 64 16
WIRE 288 16 128 16
WIRE -144 48 -144 16
WIRE -144 48 -176 48
WIRE -176 80 -176 48
WIRE -48 96 -48 16
WIRE 288 96 288 16
WIRE 128 112 128 16
WIRE -384 128 -480 128
WIRE -240 128 -304 128
WIRE -480 224 -480 128
WIRE -176 256 -176 176
WIRE -48 256 -48 160
WIRE 128 256 128 176
WIRE 128 256 -48 256
WIRE 288 256 288 160
WIRE 288 256 128 256
WIRE 128 304 128 256
FLAG -480 304 0
FLAG -176 256 0
FLAG 128 304 0
FLAG -336 -64 0
SYMBOL npn -240 80 R0
WINDOW 3 54 68 Left 2
SYMATTR Value 2N3904
SYMATTR InstName Q1
SYMBOL voltage -480 208 R0
WINDOW 0 -72 15 Left 2
WINDOW 3 -212 176 Left 2
WINDOW 123 0 0 Left 2
WINDOW 39 0 0 Left 2
SYMATTR InstName V1
SYMATTR Value PULSE(0 5 0 0 0 25u 50u)
SYMBOL res -288 112 R90
WINDOW 0 0 56 VBottom 2
WINDOW 3 32 56 VTop 2
SYMATTR InstName R1
SYMATTR Value 10k
SYMBOL res -128 32 R180
WINDOW 0 36 76 Left 2
WINDOW 3 36 40 Left 2
SYMATTR InstName R2
SYMATTR Value 200
SYMBOL cap 112 112 R0
SYMATTR InstName C1
SYMATTR Value 1000µ
SYMBOL cap -64 0 R90
WINDOW 0 0 32 VBottom 2
WINDOW 3 32 32 VTop 2
SYMATTR InstName C2
SYMATTR Value 10µ
SYMBOL diode -64 96 R0
WINDOW 3 30 61 Left 2
SYMATTR Value D1N4007
SYMATTR InstName D1
SYMBOL diode 64 0 R90
WINDOW 0 0 32 VBottom 2
WINDOW 3 32 32 VTop 2
SYMATTR InstName D2
SYMATTR Value D1N4007
SYMBOL voltage -336 -224 R0
WINDOW 123 0 0 Left 2
WINDOW 39 0 0 Left 2
SYMATTR InstName V3
SYMATTR Value 12
SYMBOL AutoGenerated\\1N4733At 288 128 R90
SYMATTR InstName U2
TEXT -512 -440 Left 2 !.tran 0 2 1.9 100m
TEXT -256 -432 Left 2 !.inc D1N4007.lib
TEXT -256 -400 Left 2 !.inc 1N4733At.lib
