Version 4
SHEET 1 2500 1300
WIRE 128 -144 48 -144
WIRE 288 -144 192 -144
WIRE 48 -16 48 -144
WIRE 48 -16 -80 -16
WIRE 128 -16 48 -16
WIRE 288 -16 288 -144
WIRE 288 -16 208 -16
WIRE 608 -16 288 -16
WIRE -80 16 -80 -16
WIRE 400 112 352 112
WIRE -80 128 -80 96
WIRE 400 144 400 112
WIRE 48 176 48 -16
WIRE 112 176 48 176
WIRE 352 176 352 112
WIRE 352 176 320 176
WIRE 448 208 320 208
WIRE 496 208 448 208
WIRE 608 208 608 -16
WIRE 608 208 576 208
WIRE 768 208 608 208
WIRE 112 240 -80 240
WIRE 352 240 320 240
WIRE 608 240 608 208
WIRE 768 240 768 208
WIRE 448 272 448 208
WIRE -80 288 -80 240
WIRE 352 288 352 240
WIRE -80 400 -80 368
WIRE 448 400 448 336
WIRE 608 400 608 304
WIRE 768 400 768 320
FLAG -80 400 0
FLAG -80 128 0
FLAG 400 144 0
FLAG 352 288 0
FLAG 448 400 0
FLAG 608 400 0
FLAG 768 400 0
SYMBOL voltage -80 272 R0
WINDOW 0 -90 25 Left 2
WINDOW 3 -115 60 Left 2
WINDOW 123 0 0 Left 2
WINDOW 39 0 0 Left 2
SYMATTR InstName V1
SYMATTR Value 25.456
SYMBOL res -96 0 R0
SYMATTR InstName R1
SYMATTR Value 1k
SYMBOL res 224 -32 R90
WINDOW 0 0 56 VBottom 2
WINDOW 3 32 56 VTop 2
SYMATTR InstName R2
SYMATTR Value 8.756k
SYMBOL cap 192 -160 R90
WINDOW 0 0 32 VBottom 2
WINDOW 3 32 32 VTop 2
SYMATTR InstName CFF
SYMATTR Value 1.5n
SYMBOL ind 592 192 R90
WINDOW 0 5 56 VBottom 2
WINDOW 3 32 56 VTop 2
SYMATTR InstName L1
SYMATTR Value 68µ
SYMBOL schottky 464 336 R180
WINDOW 0 24 64 Left 2
WINDOW 3 -97 -8 Left 2
SYMATTR InstName D1
SYMATTR Value RB055L-60
SYMATTR Description Zener Diode
SYMATTR Type zener
SYMBOL cap 592 240 R0
SYMATTR InstName COUT
SYMATTR Value 100µ
SYMATTR SpiceLine V=35
SYMBOL res 752 224 R0
SYMATTR InstName RL
SYMATTR Value 60
SYMBOL AutoGenerated\\LM2595_ADJ_TRANS 208 208 R0
SYMATTR InstName U1
TEXT -56 -312 Left 2 !.inc lm2595.lib
TEXT -48 -272 Left 2 !.tran 0 0.1 0.05 100m
TEXT -64 -400 Left 2 !.inc TL081.lib
TEXT -632 -200 Left 2 !.inc D1N4007.lib
TEXT -64 -400 Left 2 !.inc TL081.lib
