Version 4
SHEET 1 996 680
WIRE -32 -112 -224 -112
WIRE -224 -64 -224 -112
WIRE -224 80 -224 16
WIRE -32 80 -32 -112
WIRE -16 160 -32 160
WIRE 48 160 32 160
WIRE 64 160 48 160
WIRE 112 160 64 160
WIRE 128 160 112 160
WIRE 240 160 176 160
WIRE 400 160 240 160
WIRE 544 160 400 160
WIRE -32 192 -32 160
WIRE -32 192 -64 192
WIRE -64 224 -64 192
WIRE 64 240 64 160
WIRE 400 240 400 160
WIRE 544 240 544 160
WIRE 240 256 240 160
WIRE -272 272 -368 272
WIRE -128 272 -192 272
WIRE -368 368 -368 272
WIRE -64 400 -64 320
WIRE 64 400 64 304
WIRE 240 400 240 320
WIRE 240 400 64 400
WIRE 400 400 400 304
WIRE 400 400 240 400
WIRE 544 400 544 320
WIRE 544 400 400 400
WIRE 240 448 240 400
FLAG -368 448 0
FLAG -64 400 0
FLAG 240 448 0
FLAG -224 80 0
SYMBOL npn -128 224 R0
WINDOW 3 54 68 Left 2
SYMATTR Value 2N3904
SYMATTR InstName Q1
SYMBOL voltage -368 352 R0
WINDOW 0 -72 15 Left 2
WINDOW 3 -212 176 Left 2
WINDOW 123 0 0 Left 2
WINDOW 39 0 0 Left 2
SYMATTR InstName V1
SYMATTR Value PULSE(0 5 0 0 0 25u 50u)
SYMBOL res -176 256 R90
WINDOW 0 0 56 VBottom 2
WINDOW 3 32 56 VTop 2
SYMATTR InstName R1
SYMATTR Value 10k
SYMBOL res -16 176 R180
WINDOW 0 36 76 Left 2
WINDOW 3 36 40 Left 2
SYMATTR InstName R2
SYMATTR Value 200
SYMBOL cap 224 256 R0
SYMATTR InstName C1
SYMATTR Value 1000µ
SYMBOL cap 48 144 R90
WINDOW 0 0 32 VBottom 2
WINDOW 3 32 32 VTop 2
SYMATTR InstName C2
SYMATTR Value 10µ
SYMBOL diode 48 240 R0
WINDOW 3 30 61 Left 2
SYMATTR Value RR2LAM6S
SYMATTR InstName D1
SYMBOL diode 176 144 R90
WINDOW 0 0 32 VBottom 2
WINDOW 3 32 32 VTop 2
SYMATTR InstName D2
SYMATTR Value RR2LAM6S
SYMBOL voltage -224 -80 R0
WINDOW 123 0 0 Left 2
WINDOW 39 0 0 Left 2
SYMATTR InstName V2
SYMATTR Value 12
SYMBOL res 528 224 R0
SYMATTR InstName R3
SYMATTR Value 1k
SYMBOL AutoGenerated\\1N4733At 400 272 R90
SYMATTR InstName U1
TEXT -400 -296 Left 2 !.tran 0 2 1.9 100m
TEXT 360 -424 Left 2 !.lib C:\\Users\\User\\Desktop\\Edesign344\\1N4733At.lib
