Version 4
SHEET 1 996 884
WIRE -1152 -400 -1232 -400
WIRE -992 -400 -1088 -400
WIRE -1232 -272 -1232 -400
WIRE -1232 -272 -1360 -272
WIRE -1152 -272 -1232 -272
WIRE -992 -272 -992 -400
WIRE -992 -272 -1072 -272
WIRE -672 -272 -992 -272
WIRE -1360 -240 -1360 -272
WIRE -880 -144 -928 -144
WIRE -1360 -128 -1360 -160
WIRE -880 -112 -880 -144
WIRE -1232 -80 -1232 -272
WIRE -1168 -80 -1232 -80
WIRE -928 -80 -928 -144
WIRE -928 -80 -960 -80
WIRE 176 -64 -96 -64
WIRE -832 -48 -960 -48
WIRE -784 -48 -832 -48
WIRE -672 -48 -672 -272
WIRE -672 -48 -704 -48
WIRE -512 -48 -672 -48
WIRE -352 -48 -512 -48
WIRE -224 -48 -352 -48
WIRE -160 -48 -224 -48
WIRE -32 -32 -96 -32
WIRE 96 -32 -32 -32
WIRE -1568 -16 -1664 -16
WIRE -1408 -16 -1504 -16
WIRE -1280 -16 -1408 -16
WIRE -1168 -16 -1280 -16
WIRE -928 -16 -960 -16
WIRE -672 -16 -672 -48
WIRE -512 -16 -512 -48
WIRE 176 -16 176 -64
WIRE -832 16 -832 -48
WIRE -224 16 -224 -48
WIRE -32 16 -32 -32
WIRE 96 16 96 -32
WIRE -1664 32 -1664 -16
WIRE -1408 32 -1408 -16
WIRE -928 32 -928 -16
WIRE -1280 48 -1280 -16
WIRE -832 144 -832 80
WIRE -672 144 -672 48
WIRE -512 144 -512 64
WIRE -224 144 -224 80
WIRE -32 144 -32 80
WIRE 96 144 96 96
WIRE -1664 176 -1664 112
WIRE -1408 176 -1408 112
WIRE -1280 176 -1280 112
WIRE -352 208 -352 -48
WIRE -352 336 -352 288
WIRE -256 336 -288 336
WIRE -208 336 -256 336
WIRE -80 336 -144 336
WIRE 80 336 -80 336
WIRE 224 336 80 336
WIRE -352 368 -352 336
WIRE -352 368 -384 368
WIRE -384 400 -384 368
WIRE -256 416 -256 336
WIRE 80 416 80 336
WIRE 224 416 224 336
WIRE -80 432 -80 336
WIRE -592 448 -672 448
WIRE -448 448 -512 448
WIRE -672 512 -672 448
WIRE -384 576 -384 496
WIRE -256 576 -256 480
WIRE -80 576 -80 496
WIRE -80 576 -256 576
WIRE 80 576 80 480
WIRE 80 576 -80 576
WIRE 224 576 224 496
WIRE 224 576 80 576
WIRE -80 624 -80 576
WIRE -672 640 -672 592
FLAG -672 640 0
FLAG -384 576 0
FLAG -80 624 0
FLAG -1664 176 0
FLAG -1408 176 0
FLAG -1280 176 0
FLAG -1360 -128 0
FLAG -880 -112 0
FLAG -928 32 0
FLAG -832 144 0
FLAG -672 144 0
FLAG -512 144 0
FLAG -224 144 0
FLAG -32 144 0
FLAG 176 -16 0
FLAG 96 144 0
SYMBOL npn -448 400 R0
WINDOW 3 54 68 Left 2
SYMATTR Value 2N3904
SYMATTR InstName Q1
SYMBOL voltage -672 496 R0
WINDOW 0 -72 15 Left 2
WINDOW 3 -212 176 Left 2
WINDOW 123 0 0 Left 2
WINDOW 39 0 0 Left 2
SYMATTR InstName V1
SYMATTR Value PULSE(0 5 0 0 0 25u 50u)
SYMBOL res -496 432 R90
WINDOW 0 0 56 VBottom 2
WINDOW 3 32 56 VTop 2
SYMATTR InstName R1
SYMATTR Value 10k
SYMBOL res -336 304 R180
WINDOW 0 49 79 Left 2
WINDOW 3 39 45 Left 2
SYMATTR InstName R2
SYMATTR Value 200
SYMBOL cap -96 432 R0
SYMATTR InstName C1
SYMATTR Value 1000µ
SYMBOL cap -288 320 R90
WINDOW 0 0 32 VBottom 2
WINDOW 3 32 32 VTop 2
SYMATTR InstName C2
SYMATTR Value 10µ
SYMBOL diode -272 416 R0
WINDOW 3 30 61 Left 2
SYMATTR Value D1N4007
SYMATTR InstName D1
SYMBOL diode -144 320 R90
WINDOW 0 0 32 VBottom 2
WINDOW 3 32 32 VTop 2
SYMATTR InstName D2
SYMATTR Value D1N4007
SYMBOL res 208 400 R0
SYMATTR InstName R3
SYMATTR Value 1k
SYMBOL AutoGenerated\\1N4733At 80 448 R90
SYMATTR InstName U1
SYMBOL voltage -1664 16 R0
WINDOW 123 0 0 Left 2
WINDOW 39 0 0 Left 2
WINDOW 0 -61 10 Left 2
WINDOW 3 -226 102 Left 2
SYMATTR InstName V3
SYMATTR Value SINE(0 25.46 50)
SYMBOL res -1424 16 R0
SYMATTR InstName R4
SYMATTR Value 180
SYMBOL diode -1568 0 R270
WINDOW 3 -7 33 VBottom 2
WINDOW 0 38 31 VTop 2
SYMATTR Value D1N4007
SYMATTR InstName D3
SYMBOL cap -1296 48 R0
SYMATTR InstName C3
SYMATTR Value 220µ
SYMATTR SpiceLine V=35
SYMBOL res -1376 -256 R0
SYMATTR InstName R5
SYMATTR Value 1k
SYMBOL res -1056 -288 R90
WINDOW 0 0 56 VBottom 2
WINDOW 3 32 56 VTop 2
SYMATTR InstName R6
SYMATTR Value 8.756k
SYMBOL cap -1088 -416 R90
WINDOW 0 0 32 VBottom 2
WINDOW 3 32 32 VTop 2
SYMATTR InstName CFF1
SYMATTR Value 1.5n
SYMBOL ind -688 -64 R90
WINDOW 0 5 56 VBottom 2
WINDOW 3 32 56 VTop 2
SYMATTR InstName L1
SYMATTR Value 68µ
SYMBOL schottky -816 80 R180
WINDOW 0 24 64 Left 2
WINDOW 3 -97 -8 Left 2
SYMATTR InstName D4
SYMATTR Value RB055L-60
SYMATTR Description Zener Diode
SYMATTR Type zener
SYMBOL cap -688 -16 R0
SYMATTR InstName COUT1
SYMATTR Value 100µ
SYMATTR SpiceLine V=35
SYMBOL res -528 -32 R0
SYMATTR InstName RL1
SYMATTR Value 60
SYMBOL AutoGenerated\\LM2595_ADJ_TRANS -1072 -48 R0
SYMATTR InstName U3
SYMBOL cap -240 16 R0
WINDOW 0 -39 11 Left 2
WINDOW 3 -64 42 Left 2
SYMATTR InstName C4
SYMATTR Value 100n
SYMBOL cap -48 16 R0
WINDOW 0 30 1 Left 2
WINDOW 3 41 37 Left 2
SYMATTR InstName C5
SYMATTR Value 100n
SYMBOL res 80 0 R0
SYMATTR InstName R7
SYMATTR Value 125
SYMBOL AutoGenerated\\LM7805 -128 -48 R0
SYMATTR InstName U5
TEXT -1768 -584 Left 2 !.tran 0 2 1.9 100m
TEXT -1304 -640 Left 2 !.lib C:\\Users\\User\\Desktop\\Edesign344\\1N4733At.lib
TEXT -1304 -600 Left 2 !.lib C:\\Users\\User\\Desktop\\Edesign344\\D1N4007.lib
TEXT -1304 -560 Left 2 !.lib C:\\Users\\User\\Desktop\\Edesign344\\lm2595.lib
TEXT -1304 -520 Left 2 !.lib C:\\Users\\User\\Desktop\\Edesign344\\lm7805.lib
