Version 4
SHEET 1 1676 680
WIRE 288 -144 16 -144
WIRE -112 -128 -256 -128
WIRE -48 -128 -112 -128
WIRE 80 -112 16 -112
WIRE 208 -112 80 -112
WIRE 288 -96 288 -144
WIRE -256 -64 -256 -128
WIRE -112 -64 -112 -128
WIRE 80 -64 80 -112
WIRE 208 -64 208 -112
WIRE -256 64 -256 16
WIRE -112 64 -112 0
WIRE 80 64 80 0
WIRE 208 64 208 16
FLAG -112 64 0
FLAG 80 64 0
FLAG 288 -96 0
FLAG -256 64 0
FLAG 208 64 0
SYMBOL cap -128 -64 R0
WINDOW 0 -39 11 Left 2
WINDOW 3 -64 42 Left 2
SYMATTR InstName C4
SYMATTR Value 100n
SYMBOL cap 64 -64 R0
WINDOW 0 30 1 Left 2
WINDOW 3 41 37 Left 2
SYMATTR InstName C5
SYMATTR Value 100n
SYMBOL voltage -256 -80 R0
WINDOW 0 -72 22 Left 2
WINDOW 3 -70 63 Left 2
WINDOW 123 0 0 Left 2
WINDOW 39 0 0 Left 2
SYMATTR InstName V1
SYMATTR Value 12
SYMBOL res 192 -80 R0
SYMATTR InstName R1
SYMATTR Value 125
SYMBOL AutoGenerated\\LM7805 -16 -128 R0
SYMATTR InstName U1
TEXT -344 -440 Left 2 !.tran 0 1 0.9 100m
TEXT 24 -424 Left 2 !.inc D1N4007.lib
TEXT 48 -464 Left 2 !.inc TL081.lib
TEXT 48 -464 Left 2 !.inc TL081.lib
